 
-------------------------------------------------------------------------------
|                               DAFoam v3.0.5                                 |
-------------------------------------------------------------------------------
 
/*---------------------------------------------------------------------------*\
| =========                 |                                                 |
| \\      /  F ield         | OpenFOAM: The Open Source CFD Toolbox           |
|  \\    /   O peration     | Version:  v1812                                 |
|   \\  /    A nd           | Web:      www.OpenFOAM.com                      |
|    \\/     M anipulation  |                                                 |
\*---------------------------------------------------------------------------*/
Build  : v1812 OPENFOAM=1812
Arch   : "LSB;label=32;scalar=64"
Exec   : decomposePar
Date   : Mar 09 2023
Time   : 11:07:25
Host   : 4c951d1373d3
PID    : 34182
--> FOAM Warning : 
    From function Foam::fileName Foam::cwd_L()
    in file POSIX.C at line 380
    PWD is not the cwd() - reverting to physical description
I/O    : uncollated
--> FOAM Warning : 
    From function Foam::fileName Foam::cwd_L()
    in file POSIX.C at line 380
    PWD is not the cwd() - reverting to physical description
Case   : /home/dafoamuser/mount/tests/input/Wing
nProcs : 1
trapFpe: Floating point exception trapping enabled (FOAM_SIGFPE).
fileModificationChecking : Monitoring run-time modified files using timeStampMaster (fileModificationSkew 10)
allowSystemOperations : Allowing user-supplied system call operations

// * * * * * * * * * * * * * * * * * * * * * * * * * * * * * * * * * * * * * //
Create time

Overriding DebugSwitches according to controlDict
    SolverPerformance 0;



Decomposing mesh region0

Create mesh

Calculating distribution of cells
Selecting decompositionMethod scotch [4]

Finished decomposition in 0 s

Calculating original mesh data

Distributing cells to processors

Distributing faces to processors

Distributing points to processors

Constructing processor meshes
Overriding DebugSwitches according to controlDict
    SolverPerformance 0;


Processor 0
    Number of cells = 699
    Number of faces shared with processor 1 = 131
    Number of faces shared with processor 2 = 60
    Number of faces shared with processor 3 = 75
    Number of processor patches = 3
    Number of processor faces = 266
    Number of boundary faces = 246
Overriding DebugSwitches according to controlDict
    SolverPerformance 0;


Processor 1
    Number of cells = 700
    Number of faces shared with processor 0 = 131
    Number of faces shared with processor 2 = 64
    Number of faces shared with processor 3 = 70
    Number of processor patches = 3
    Number of processor faces = 265
    Number of boundary faces = 241
Overriding DebugSwitches according to controlDict
    SolverPerformance 0;


Processor 2
    Number of cells = 686
    Number of faces shared with processor 0 = 60
    Number of faces shared with processor 1 = 64
    Number of faces shared with processor 3 = 168
    Number of processor patches = 3
    Number of processor faces = 292
    Number of boundary faces = 120
Overriding DebugSwitches according to controlDict
    SolverPerformance 0;


Processor 3
    Number of cells = 687
    Number of faces shared with processor 0 = 75
    Number of faces shared with processor 1 = 70
    Number of faces shared with processor 2 = 168
    Number of processor patches = 3
    Number of processor faces = 313
    Number of boundary faces = 139

Number of processor faces = 568
Max number of cells = 700 (1.01010101% above average 693)
Max number of processor patches = 3 (0% above average 3)
Max number of faces between processors = 313 (10.21126761% above average 284)

Time = 0

Processor 0: field transfer
Overriding DebugSwitches according to controlDict
    SolverPerformance 0;

Processor 1: field transfer
Overriding DebugSwitches according to controlDict
    SolverPerformance 0;

Processor 2: field transfer
Overriding DebugSwitches according to controlDict
    SolverPerformance 0;

Processor 3: field transfer
Overriding DebugSwitches according to controlDict
    SolverPerformance 0;


End

I/O    : uncollated
--> FOAM Warning : 
    From function Foam::fileName Foam::cwd_L()
    in file POSIX.C at line 380
    PWD is not the cwd() - reverting to physical description
Case   : /home/dafoamuser/mount/tests/input/Wing
nProcs : 4
Hosts  :
(
    (4c951d1373d3 4)
)
Pstream initialized with:
    floatTransfer      : 0
    nProcsSimpleSum    : 0
    commsType          : nonBlocking
    polling iterations : 0
Create time

Overriding DebugSwitches according to controlDict
    SolverPerformance 0;

Create mesh for time = 0
Initializing mesh and runtime for DASolver
I/O    : uncollated
--> FOAM Warning : 
    From function Foam::fileName Foam::cwd_L()
    in file POSIX.C at line 380
    PWD is not the cwd() - reverting to physical description
Case   : /home/dafoamuser/mount/tests/input/Wing
nProcs : 4
Hosts  :
(
    (4c951d1373d3 4)
)
Pstream initialized with:
    floatTransfer      : 0
    nProcsSimpleSum    : 0
    commsType          : nonBlocking
    polling iterations : 0
Create time

Overriding DebugSwitches according to controlDict
    SolverPerformance 0;

Create mesh for time = 0
Initializing mesh and runtime for DASolver
Initializing fields for DARhoSimpleFoam
Create simpleControl.

SIMPLE: no convergence criteria found. Calculations will run for 1000 steps.

Reading thermophysical properties

Selecting thermodynamics package 
{
    mixture         pureMixture;
    specie          specie;
    equationOfState perfectGas;
    energy          sensibleInternalEnergy;
    thermo          hConst;
    type            hePsiThermo;
    transport       const;
}

Reading field U

Reading/calculating face flux field phi

Creating source term. 
Creating turbulence model

Selecting turbulence model type RAS
Selecting RAS turbulence model SpalartAllmaras
Selecting patchDistMethod meshWaveFrozen
No MRF models present

Adjoint States: 
5
(
U volVectorState
nuTilda modelState
phi surfaceScalarState
p volScalarState
T volScalarState
)
Global Cells: 2772
Global Faces: 9257
Global Xv: 11436
Undecomposed points: 3168
Global Adjoint States: 25889

SIMPLE: no convergence criteria found. Calculations will run for 1000 steps.

DACheckMesh Thresholds: 
maxNonOrth: 70
maxSkewness: 8
maxAspectRatio: 5000
maxIncorrectlyOrientedFaces: 0
    Adding all faces of patches 2(wing wing_te) ...
    Found matching patch wing with 66 faces.
    Found matching patch wing_te with 0 faces.
    Adding all faces of patches 2(wing wing_te) ...
    Found matching patch wing with 66 faces.
    Found matching patch wing_te with 0 faces.
Initializing DASource
Initializing fields for DARhoSimpleFoam
Create simpleControl.

SIMPLE: no convergence criteria found. Calculations will run for 1000 steps.

Reading thermophysical properties

Selecting thermodynamics package 
{
    mixture         pureMixture;
    specie          specie;
    equationOfState perfectGas;
    energy          sensibleInternalEnergy;
    thermo          hConst;
    type            hePsiThermo;
    transport       const;
}

Reading field U

Reading/calculating face flux field phi

Creating source term. 
Creating turbulence model

Selecting turbulence model type RAS
Selecting RAS turbulence model SpalartAllmaras
Selecting patchDistMethod meshWaveFrozen
No MRF models present

Adjoint States: 
5
(
U volVectorState
nuTilda modelState
phi surfaceScalarState
p volScalarState
T volScalarState
)
Global Cells: 2772
Global Faces: 9257
Global Xv: 11436
Undecomposed points: 3168
Global Adjoint States: 25889

SIMPLE: no convergence criteria found. Calculations will run for 1000 steps.

DACheckMesh Thresholds: 
maxNonOrth: 70
maxSkewness: 8
maxAspectRatio: 5000
maxIncorrectlyOrientedFaces: 0
    Adding all faces of patches 2(wing wing_te) ...
    Found matching patch wing with 66 faces.
    Found matching patch wing_te with 0 faces.
    Adding all faces of patches 2(wing wing_te) ...
    Found matching patch wing with 66 faces.
    Found matching patch wing_te with 0 faces.
Initializing DASource
DAFoam option dictionary: 
{
    solverName      DARhoSimpleFoam;
    primalMinResTol 1e-08;
    primalBC
    {
        U0
        {
            variable        U;
            patches         1 ( inout );
            value           3 ( 200 0 0 );
        }
        p0
        {
            variable        p;
            patches         1 ( inout );
            value           1 ( 101325 );
        }
        T0
        {
            variable        T;
            patches         1 ( inout );
            value           1 ( 300 );
        }
        nuTilda0
        {
            variable        nuTilda;
            patches         1 ( inout );
            value           1 ( 4.5e-05 );
        }
        useWallFunction 0;
    }
    normalizeStates
    {
        U               200;
        p               101325;
        T               300;
        nuTilda         0.001;
        phi             1;
    }
    objFunc
    {
        CD
        {
            part1
            {
                type            force;
                source          patchToFace;
                patches         2 ( wing wing_te );
                directionMode   fixedDirection;
                direction       3 ( 1 0 0 );
                scale           9.337812447e-07;
                addToAdjoint    1;
            }
        }
        CL
        {
            part1
            {
                type            force;
                source          patchToFace;
                patches         2 ( wing wing_te );
                directionMode   fixedDirection;
                direction       3 ( 0 1 0 );
                scale           9.337812447e-07;
                addToAdjoint    1;
            }
        }
    }
    designVar
    {
        twist
        {
            designVarType   FFD;
        }
        shape
        {
            designVarType   FFD;
        }
        actuator_disk1
        {
            designVarType   ACTD;
            actuatorName    disk1;
        }
    }
    designSurfaces  2 ( wing wing_te );
    couplingInfo
    {
        aerostructural
        {
            active          1;
            pRef            101325;
            propMovement    1;
            fvSource
            {
                disk1
                {
                    nNodes          4;
                    radialLoc       0.1;
                }
            }
            couplingSurfaceGroups
            {
                wingGroup       2 ( wing wing_te );
            }
        }
        aerothermal
        {
            active          0;
            couplingSurfaceGroups
            {
                wallGroup       1 ( fin_wall );
            }
        }
        aeroacoustic
        {
            active          0;
            pRef            0;
            couplingSurfaceGroups
            {
                blade1Group     2 ( blade1_ps blade1_ss );
                blade2Group     1 ( blade2 );
            }
        }
    }
    aeroPropulsive
    {
    }
    primalOnly      0;
    fvSource
    {
        disk1
        {
            type            actuatorDisk;
            source          cylinderAnnulusSmooth;
            center          3 ( 7 0 14 );
            direction       3 ( 1 0 0 );
            innerRadius     0.1;
            outerRadius     1;
            rotDir          left;
            scale           1;
            POD             0;
            eps             0.05;
            expM            1;
            expN            0.5;
            adjustThrust    1;
            targetThrust    2000;
        }
    }
    adjEqnSolMethod Krylov;
    primalVarBounds
    {
        UMax            1000;
        UMin            -1000;
        pMax            500000;
        pMin            20000;
        p_rghMax        500000;
        p_rghMin        20000;
        eMax            500000;
        eMin            100000;
        TMax            1000;
        TMin            100;
        hMax            500000;
        hMin            100000;
        DMax            1e+16;
        DMin            -1e+16;
        rhoMax          5;
        rhoMin          0.2;
        nuTildaMax      1e+16;
        nuTildaMin      1e-16;
        kMax            1e+16;
        kMin            1e-16;
        omegaMax        1e+16;
        omegaMin        1e-16;
        epsilonMax      1e+16;
        epsilonMin      1e-16;
        ReThetatMax     1e+16;
        ReThetatMin     1e-16;
        gammaIntMax     1e+16;
        gammaIntMin     1e-16;
    }
    discipline      aero;
    multiPoint      0;
    nMultiPoints    1;
    adjPartDerivFDStep
    {
        State           1e-06;
        FFD             0.001;
        BC              0.01;
        AOA             0.001;
        ACTP            0.01;
        ACTD            0.01;
        ACTL            0.01;
    }
    transonicPCOption -1;
    unsteadyAdjoint
    {
        mode            None;
        nTimeInstances  -1;
        periodicity     -1;
    }
    objFuncAvgStart 1;
    adjPCLag        10000;
    useAD
    {
        mode            reverse;
        dvName          None;
        seedIndex       -9999;
    }
    rigidBodyMotion
    {
        mode            dummy;
    }
    runStatus       None;
    printPYDAFOAMOptions 0;
    printDAOptions  1;
    debug           0;
    writeJacobians  1 ( None );
    printInterval   100;
    printIntervalUnsteady 500;
    primalMinResTolDiff 100;
    adjUseColoring  1;
    adjEqnOption
    {
        globalPCIters   0;
        asmOverlap      1;
        localPCIters    1;
        jacMatReOrdering rcm;
        pcFillLevel     1;
        gmresMaxIters   1000;
        gmresRestart    1000;
        gmresRelTol     0.01;
        gmresAbsTol     1e-14;
        gmresTolDiff    100;
        useNonZeroInitGuess 1;
        useMGSO         0;
        printInfo       1;
        fpMaxIters      1000;
        fpRelTol        1e-06;
        fpMinResTolDiff 100;
        dynAdjustTol    1;
    }
    normalizeResiduals 10 ( URes pRes p_rghRes nuTildaRes phiRes TRes DRes kRes omegaRes epsilonRes );
    maxResConLv4JacPCMat
    {
        pRes            2;
        phiRes          1;
        URes            2;
        TRes            2;
        nuTildaRes      2;
        kRes            2;
        epsilonRes      2;
        omegaRes        2;
        p_rghRes        2;
        DRes            2;
    }
    jacLowerBounds
    {
        dRdW            1e-30;
        dRdWPC          1e-30;
    }
    maxTractionBCIters 100;
    decomposeParDict
    {
        method          scotch;
        simpleCoeffs
        {
            n               3 ( 2 2 1 );
            delta           0.001;
        }
        preservePatches 1 ( None );
        singleProcessorFaceSets 1 ( None );
    }
    adjStateOrdering state;
    meshSurfaceFamily None;
    checkMeshThreshold
    {
        maxAspectRatio  5000;
        maxNonOrth      70;
        maxSkewness     8;
        maxIncorrectlyOrientedFaces 0;
    }
    writeSensMap    1 ( NONE );
    writeDeformedFFDs 0;
    maxCorrectBCCalls 10;
    writeMinorIterations 0;
    runLowOrderPrimal4PC
    {
        active          0;
    }
    wingProp
    {
        nForceSections  10;
        axis            3 ( 1 0 0 );
        actEps          0.02;
        rotDir          right;
    }
}

Reading OpenFOAM mesh information...
I/O    : uncollated
--> FOAM Warning : 
    From function Foam::fileName Foam::cwd_L()
    in file POSIX.C at line 380
    PWD is not the cwd() - reverting to physical description
Case   : /home/dafoamuser/mount/tests/input/Wing
nProcs : 4
Hosts  :
(
    (4c951d1373d3 4)
)
Pstream initialized with:
    floatTransfer      : 0
    nProcsSimpleSum    : 0
    commsType          : nonBlocking
    polling iterations : 0
Reading the OpenFOAM mesh..
Overriding DebugSwitches according to controlDict
    SolverPerformance 0;

Finalising parallel run
Checking if we need to compress the mesh files
Checking if we need to compress the mesh files
I/O    : uncollated
pyDAFoam initialization done!
+----------------------------------------+
|          All IDWarp Options:           |
+----------------------------------------+
{'LdefFact': 1.0,
 'aExp': 3.0,
 'alpha': 0.25,
 'bExp': 5.0,
 'bucketSize': 8,
 'cornerAngle': 30.0,
 'errTol': 0.0005,
 'evalMode': 'fast',
 'fileType': 'OpenFOAM',
 'gridFile': '/home/dafoamuser/mount/tests/input/Wing',
 'restartFile': None,
 'specifiedSurfaces': None,
 'symmTol': 1e-06,
 'symmetryPlanes': [[[0.0, 0.0, 0.0], [0.0, 0.0, 1.0]]],
 'symmetrySurfaces': None,
 'useRotations': False,
 'zeroCornerRotations': True}
I/O    : uncollated
--> FOAM Warning : 
    From function Foam::fileName Foam::cwd_L()
    in file POSIX.C at line 380
    PWD is not the cwd() - reverting to physical description
Case   : /home/dafoamuser/mount/tests/input/Wing
nProcs : 4
Hosts  :
(
    (4c951d1373d3 4)
)
Pstream initialized with:
    floatTransfer      : 0
    nProcsSimpleSum    : 0
    commsType          : nonBlocking
    polling iterations : 0
Reading the OpenFOAM mesh..
Overriding DebugSwitches according to controlDict
    SolverPerformance 0;

Finalising parallel run
Checking if we need to compress the mesh files
Checking if we need to compress the mesh files
#------------------------------#
 Total Volume Nodes :      3812 
#------------------------------#
I/O    : uncollated
+-------------------- Symmetry Planes -------------------+
|           Point                        Normal          |
| (  0.000   0.000   0.000)    (  0.000   0.000   1.000) |
+--------------------------------------------------------+
#--------------------------------#
 Unique Surface Nodes :       264 
#--------------------------------#
 Computing Denomenator Estimate...
 Load Balancing...
 Finished Mesh Initialization.
OrderedDict([('inout', [0]), ('procBoundary0to1', [1]), ('procBoundary0to2', [2]), ('procBoundary0to3', [3]), ('sym', [4]), ('wing', [5]), ('wing_te', [6]), ('allSurfaces', [0, 1, 2, 3, 4, 5, 6]), ('allWalls', [5, 6]), ('designSurfaces', [5, 6]), ('wingGroup', [5, 6])])
INFO:    bdf.py:2338                      rejecting card_name = 'ENDBULK'
INFO:    bdf.py:2338                      rejecting card_name = 'ENDBULK'
INFO:    bdf.py:2338                      rejecting card_name = 'ENDBULK'
INFO:    bdf.py:2338                      rejecting card_name = 'ENDBULK'
[2] Creating TACSAssembler with numOwnedNodes = 1816 numElements = 1909
[3] Creating TACSAssembler with numOwnedNodes = 1827 numElements = 1910
[1] Creating TACSAssembler with numOwnedNodes = 1811 numElements = 1909
[0] Creating TACSAssembler with numOwnedNodes = 1902 numElements = 1909
[0] TACSAssembler: Total dof = 44136 Total nodes = 7356 Total elements = 7637
Transfer scheme [0]: Creating scheme of type MELD...
dRdWT Jacobian Free created!
[2] BCSRMat: ILU(1000) Input fill ratio 20.00, actual fill ratio: 5.22, nnz(ILU) = 85928
[0] BCSRMat: ILU(1000) Input fill ratio 20.00, actual fill ratio: 5.56, nnz(ILU) = 91436
[1] BCSRMat: ILU(1000) Input fill ratio 20.00, actual fill ratio: 5.57, nnz(ILU) = 87086
[3] BCSRMat: ILU(1000) Input fill ratio 20.00, actual fill ratio: 5.29, nnz(ILU) = 82786
[3] TACSBlockCyclicMat: (1536,1536) Initial density: 0.845 factor fill in: 0.000
[0] BCSRMat: ILU(1000) Input fill ratio 20.00, actual fill ratio: 5.56, nnz(ILU) = 91436
[2] BCSRMat: ILU(1000) Input fill ratio 20.00, actual fill ratio: 5.22, nnz(ILU) = 85928
[1] BCSRMat: ILU(1000) Input fill ratio 20.00, actual fill ratio: 5.57, nnz(ILU) = 87086
[3] BCSRMat: ILU(1000) Input fill ratio 20.00, actual fill ratio: 5.29, nnz(ILU) = 82786
[3] TACSBlockCyclicMat: (1536,1536) Initial density: 0.845 factor fill in: 0.000
Driver debug print for iter coord: rank0:pyOptSparse_SLSQP|0
------------------------------------------------------------
Design Vars
{'dvs.shape': array([0., 0., 0., 0., 0., 0., 0., 0., 0., 0., 0., 0., 0., 0., 0., 0., 0.,
       0., 0., 0., 0., 0., 0., 0., 0., 0., 0., 0., 0., 0., 0., 0., 0., 0.,
       0., 0., 0., 0., 0., 0., 0., 0., 0., 0., 0., 0., 0., 0., 0., 0., 0.,
       0., 0., 0., 0., 0., 0., 0., 0., 0., 0., 0., 0., 0., 0., 0., 0., 0.,
       0., 0., 0., 0., 0., 0., 0., 0., 0., 0., 0., 0., 0., 0., 0., 0., 0.,
       0., 0., 0., 0., 0., 0., 0., 0., 0., 0., 0.]),
 'dvs.twist': array([2., 2., 2., 2., 2., 2., 2.])}


===============
cruise.coupling
===============
Setting up primal boundary conditions based on pyOptions: 
Setting primal boundary conditions...
Setting U = (200 0 0) at inout
Setting primal boundary conditions...
Setting p = 101325 at inout
Setting primal boundary conditions...
Setting T = 300 at inout
Setting primal boundary conditions...
Setting nuTilda = 4.5e-05 at inout
Setting nut wall BC for wing. BCType=nutLowReWallFunction
Setting nut wall BC for wing_te. BCType=nutLowReWallFunction
Running Primal Solver 001
Previous solution time -1e+10 not found and nothing deleted.
No finite volume options present

Starting time loop

Checking mesh quality for time = 0
    Overall domain bounding box (-202.9936383 -212.8397886 0) (234.5335353 213.2181953 252.0393408)
    Mesh has 3 geometric (non-empty/wedge) directions 3{1}
    Mesh has 3 solution (non-empty) directions 3{1}
    Boundary openness (-8.399431545e-18 -1.504127364e-18 2.617867567e-17) OK.
    Max cell openness = 3.469482373e-15 OK.
    Max aspect ratio = 106.4332537 OK.
    Minimum face area = 6.739535736e-05. Maximum face area = 6482.779152.  Face area magnitudes OK.
    Min volume = 0.0001974490729. Max volume = 97724.47789.  Total volume = 24497375.12.  Cell volumes OK.
    Mesh non-orthogonality Max: 52.42200882 average: 13.71455667
    Non-orthogonality check OK.
    Face pyramids OK.
    Max skewness = 6.346003146 OK.
    Coupled point location match (average 0) OK.

Mesh OK.

Time = 1

ThrustCoeff Source Term for disk1: 2000
TorqueCoeff Source Term for disk1: 0
Dynamically adjusted scale for disk1: 30994.64038
U Initial residual: (1 1 1)
U   Final residual: (0.0419389772 0.05070844485 0.05015087408)
he Initial residual: 1
he   Final residual: 0.04218476441
p Initial residual: 1
p   Final residual: 0.03842357915
Time step continuity errors : sum local = 0.01443813901
                                 global = -0.009666442367
                             cumulative = -0.009666442367
nuTilda Initial residual: 1
          Final residual: 0.0349331563
Bounding nuTilda>1e-16
yPlus min: 161.6587684 max: 1081.363886 mean: 385.8758787
CD-part1-force: 0.02729677105
CL-part1-force: 0.03127169853
ExecutionTime = 2.5 s  ClockTime = 4 s

Time = 100

ThrustCoeff Source Term for disk1: 2000
TorqueCoeff Source Term for disk1: 0
Dynamically adjusted scale for disk1: 30994.64038
U Initial residual: (6.936580021e-08 9.101983746e-07 9.484282642e-08)
U   Final residual: (4.044486412e-09 2.866517642e-08 6.832949021e-09)
he Initial residual: 2.116516995e-07
he   Final residual: 1.645274938e-08
p Initial residual: 4.99132368e-06
p   Final residual: 2.386431797e-07
Time step continuity errors : sum local = 1.133624943e-09
                                 global = -4.055830714e-10
                             cumulative = -0.009666442773
nuTilda Initial residual: 9.050141177e-09
          Final residual: 5.469729672e-10
Bounding nuTilda>1e-16
yPlus min: 221.0349454 max: 1543.932191 mean: 522.4623582
CD-part1-force: 0.03728872408
CL-part1-force: 0.3113627912
ExecutionTime = 2.87 s  ClockTime = 4 s

Time = 119
Minimal residual 9.222382617e-09 satisfied the prescribed tolerance 1e-08

CD-part1-force: 0.03728862732
CL-part1-force: 0.3113643734
Printing Primal Residual Statistics.
U Residual Norm2: (30.96325252 17.67889385 11.33649002)
U Residual Mean: (0.05682568474 0.05782568773 0.03970628501)
U Residual Max: (22.87161337 8.0494015 6.306156601)
p Residual Norm2: 0.6188444577
p Residual Mean: 0.001445239257
p Residual Max: 0.347519566
T Residual Norm2: 1850.80677
T Residual Mean: 4.647905864
T Residual Max: 851.7508175
nuTilda Residual Norm2: 0.2449291129
nuTilda Residual Mean: 0.0004122863475
nuTilda Residual Max: 0.1436247691
phi Residual Norm2: 0.01804808703
phi Residual Mean: 2.580961728e-05
phi Residual Max: 0.008387249999
End

Computing surface forces
Total force:
Fx = 3.993294e+04
Fy = 3.334447e+05
Fz = -1.061862e+04
NL: NLBGS 1 ; 12192554.1 1
Setting up primal boundary conditions based on pyOptions: 
Setting primal boundary conditions...
Setting U = (200 0 0) at inout
Setting primal boundary conditions...
Setting p = 101325 at inout
Setting primal boundary conditions...
Setting T = 300 at inout
Setting primal boundary conditions...
Setting nuTilda = 4.5e-05 at inout
Setting nut wall BC for wing. BCType=nutLowReWallFunction
Setting nut wall BC for wing_te. BCType=nutLowReWallFunction
Running Primal Solver 002
Previous solution time 119 found and deleted.
No finite volume options present

Starting time loop

Checking mesh quality for time = 0
    Overall domain bounding box (-202.9935658 -212.6320885 0) (234.5336346 213.4261496 252.0393647)
    Mesh has 3 geometric (non-empty/wedge) directions 3{1}
    Mesh has 3 solution (non-empty) directions 3{1}
    Boundary openness (1.529745753e-18 -1.741022791e-17 3.370137865e-18) OK.
    Max cell openness = 8.366009621e-15 OK.
    Max aspect ratio = 124.0122161 OK.
    Minimum face area = 6.739521181e-05. Maximum face area = 6482.789007.  Face area magnitudes OK.
    Min volume = 0.0001975441029. Max volume = 97717.41429.  Total volume = 24497376.99.  Cell volumes OK.
    Mesh non-orthogonality Max: 52.06182802 average: 13.90384283
    Non-orthogonality check OK.
    Face pyramids OK.
    Max skewness = 5.541502558 OK.
    Coupled point location match (average 0) OK.

Mesh OK.

Time = 1

ThrustCoeff Source Term for disk1: 2000
TorqueCoeff Source Term for disk1: 0
Dynamically adjusted scale for disk1: 33581.89783
U Initial residual: (3.622008008e-05 0.0006482445704 0.0001091027747)
U   Final residual: (1.702357784e-06 4.053647357e-05 5.484265246e-06)
he Initial residual: 5.510754509e-05
he   Final residual: 2.469820658e-06
p Initial residual: 0.005801171816
p   Final residual: 0.0004267079328
Time step continuity errors : sum local = 2.025636155e-06
                                 global = 1.899266879e-07
                             cumulative = -0.009666252846
nuTilda Initial residual: 2.61600082e-06
          Final residual: 8.005518921e-08
Bounding nuTilda>1e-16
yPlus min: 221.2704442 max: 1398.265256 mean: 522.6637793
CD-part1-force: 0.0309230631
CL-part1-force: 0.24370285
ExecutionTime = 4.01 s  ClockTime = 5 s

Time = 82
Minimal residual 9.812624537e-09 satisfied the prescribed tolerance 1e-08

CD-part1-force: 0.03269025752
CL-part1-force: 0.2252640502
Printing Primal Residual Statistics.
U Residual Norm2: (2.622107781 1.906919327 0.8663802928)
U Residual Mean: (0.007645973208 0.006812827054 0.00376403566)
U Residual Max: (1.741738564 0.9505080891 0.3201359126)
p Residual Norm2: 0.09620257566
p Residual Mean: 0.0002410099586
p Residual Max: 0.05770893967
T Residual Norm2: 133.5816517
T Residual Mean: 0.5429833624
T Residual Max: 31.5903419
nuTilda Residual Norm2: 0.04103716881
nuTilda Residual Mean: 0.0001073900974
nuTilda Residual Max: 0.02290015945
phi Residual Norm2: 0.002565279569
phi Residual Mean: 4.245289072e-06
phi Residual Max: 0.001371473335
End

Computing surface forces
Total force:
Fx = 3.500848e+04
Fy = 2.412386e+05
Fz = -2.025580e+04
NL: NLBGS 2 ; 42475.3727 0.00348371412
Setting up primal boundary conditions based on pyOptions: 
Setting primal boundary conditions...
Setting U = (200 0 0) at inout
Setting primal boundary conditions...
Setting p = 101325 at inout
Setting primal boundary conditions...
Setting T = 300 at inout
Setting primal boundary conditions...
Setting nuTilda = 4.5e-05 at inout
Setting nut wall BC for wing. BCType=nutLowReWallFunction
Setting nut wall BC for wing_te. BCType=nutLowReWallFunction
Running Primal Solver 003
Previous solution time 82 found and deleted.
No finite volume options present

Starting time loop

Checking mesh quality for time = 0
    Overall domain bounding box (-202.993266 -212.7021284 0) (234.533948 213.356024 252.0393415)
    Mesh has 3 geometric (non-empty/wedge) directions 3{1}
    Mesh has 3 solution (non-empty) directions 3{1}
    Boundary openness (7.384033918e-18 3.269988676e-17 -4.555643423e-17) OK.
    Max cell openness = 3.04203091e-15 OK.
    Max aspect ratio = 106.7345516 OK.
    Minimum face area = 6.739522454e-05. Maximum face area = 6482.785955.  Face area magnitudes OK.
    Min volume = 0.0001974370495. Max volume = 97719.78682.  Total volume = 24497375.75.  Cell volumes OK.
    Mesh non-orthogonality Max: 51.5665456 average: 13.79780965
    Non-orthogonality check OK.
    Face pyramids OK.
    Max skewness = 4.926009088 OK.
    Coupled point location match (average 0) OK.

Mesh OK.

Time = 1

ThrustCoeff Source Term for disk1: 2000
TorqueCoeff Source Term for disk1: 0
Dynamically adjusted scale for disk1: 32089.25183
U Initial residual: (1.997375114e-05 0.001384786688 6.206132234e-05)
U   Final residual: (9.854052158e-07 7.551226471e-05 3.477521929e-06)
he Initial residual: 2.865008479e-05
he   Final residual: 1.318185383e-06
p Initial residual: 0.001140082422
p   Final residual: 6.561224054e-05
Time step continuity errors : sum local = 5.989729096e-07
                                 global = -4.019556223e-08
                             cumulative = -0.009666293042
nuTilda Initial residual: 9.992126135e-07
          Final residual: 2.699419283e-08
Bounding nuTilda>1e-16
yPlus min: 222.0532298 max: 1347.588454 mean: 524.178542
CD-part1-force: 0.03408885686
CL-part1-force: 0.2439719552
ExecutionTime = 4.54 s  ClockTime = 6 s

Time = 80
Minimal residual 8.234591666e-09 satisfied the prescribed tolerance 1e-08

CD-part1-force: 0.03370998123
CL-part1-force: 0.2492552743
Printing Primal Residual Statistics.
U Residual Norm2: (1.025476115 0.4544966287 0.3598941881)
U Residual Mean: (0.002901763977 0.001889186667 0.00128241846)
U Residual Max: (0.4193399023 0.1800510944 0.1477823311)
p Residual Norm2: 0.01883836258
p Residual Mean: 6.040501115e-05
p Residual Max: 0.01067313279
T Residual Norm2: 51.24188754
T Residual Mean: 0.1891413274
T Residual Max: 15.75542644
nuTilda Residual Norm2: 0.01627152528
nuTilda Residual Mean: 4.525455724e-05
nuTilda Residual Max: 0.00610454731
phi Residual Norm2: 0.000551629276
phi Residual Mean: 1.157000755e-06
phi Residual Max: 0.0002555246623
End

Computing surface forces
Total force:
Fx = 3.610051e+04
Fy = 2.669311e+05
Fz = -1.767956e+04
NL: NLBGS 3 ; 9127.97905 0.000748651924
Setting up primal boundary conditions based on pyOptions: 
Setting primal boundary conditions...
Setting U = (200 0 0) at inout
Setting primal boundary conditions...
Setting p = 101325 at inout
Setting primal boundary conditions...
Setting T = 300 at inout
Setting primal boundary conditions...
Setting nuTilda = 4.5e-05 at inout
Setting nut wall BC for wing. BCType=nutLowReWallFunction
Setting nut wall BC for wing_te. BCType=nutLowReWallFunction
Running Primal Solver 004
Previous solution time 80 found and deleted.
No finite volume options present

Starting time loop

Checking mesh quality for time = 0
    Overall domain bounding box (-202.993347 -212.6869091 0) (234.533863 213.3712619 252.0393472)
    Mesh has 3 geometric (non-empty/wedge) directions 3{1}
    Mesh has 3 solution (non-empty) directions 3{1}
    Boundary openness (5.973991664e-18 3.436336266e-17 -2.698258859e-17) OK.
    Max cell openness = 3.535751577e-15 OK.
    Max aspect ratio = 113.6464903 OK.
    Minimum face area = 6.739521892e-05. Maximum face area = 6482.786614.  Face area magnitudes OK.
    Min volume = 0.0001974524935. Max volume = 97719.27326.  Total volume = 24497376.04.  Cell volumes OK.
    Mesh non-orthogonality Max: 51.64838102 average: 13.81733008
    Non-orthogonality check OK.
    Face pyramids OK.
    Max skewness = 4.992244568 OK.
    Coupled point location match (average 0) OK.

Mesh OK.

Time = 1

ThrustCoeff Source Term for disk1: 2000
TorqueCoeff Source Term for disk1: 0
Dynamically adjusted scale for disk1: 32463.78427
U Initial residual: (1.273533486e-05 0.0009664961751 4.029056123e-05)
U   Final residual: (7.087202536e-07 5.764863584e-05 2.906786001e-06)
he Initial residual: 1.847461979e-05
he   Final residual: 9.91540599e-07
p Initial residual: 0.0006503788465
p   Final residual: 4.082947532e-05
Time step continuity errors : sum local = 3.358642401e-07
                                 global = 2.229371778e-08
                             cumulative = -0.009666270748
nuTilda Initial residual: 2.392143489e-07
          Final residual: 6.3406151e-09
Bounding nuTilda>1e-16
yPlus min: 221.7975079 max: 1346.799225 mean: 524.0784708
CD-part1-force: 0.03338570986
CL-part1-force: 0.2455445831
ExecutionTime = 5.09 s  ClockTime = 7 s

Time = 73
Minimal residual 9.078297967e-09 satisfied the prescribed tolerance 1e-08

CD-part1-force: 0.03347330681
CL-part1-force: 0.2440633248
Printing Primal Residual Statistics.
U Residual Norm2: (0.4402513909 0.1808571966 0.1403126301)
U Residual Mean: (0.001324986048 0.0007949697431 0.000538597272)
U Residual Max: (0.1819038711 0.06428809435 0.05918740689)
p Residual Norm2: 0.006994583851
p Residual Mean: 2.413581453e-05
p Residual Max: 0.003818346269
T Residual Norm2: 26.92398714
T Residual Mean: 0.1086429343
T Residual Max: 7.649742583
nuTilda Residual Norm2: 0.006444220988
nuTilda Residual Mean: 1.829087055e-05
nuTilda Residual Max: 0.001972732819
phi Residual Norm2: 0.0002153363069
phi Residual Mean: 4.925748115e-07
phi Residual Max: 9.128201028e-05
End

Computing surface forces
Total force:
Fx = 3.584705e+04
Fy = 2.613710e+05
Fz = -1.831285e+04
NL: NLBGS 4 ; 70.2734253 5.76363451e-06
Setting up primal boundary conditions based on pyOptions: 
Setting primal boundary conditions...
Setting U = (200 0 0) at inout
Setting primal boundary conditions...
Setting p = 101325 at inout
Setting primal boundary conditions...
Setting T = 300 at inout
Setting primal boundary conditions...
Setting nuTilda = 4.5e-05 at inout
Setting nut wall BC for wing. BCType=nutLowReWallFunction
Setting nut wall BC for wing_te. BCType=nutLowReWallFunction
Running Primal Solver 005
Previous solution time 73 found and deleted.
No finite volume options present

Starting time loop

Checking mesh quality for time = 0
    Overall domain bounding box (-202.9933462 -212.6869383 0) (234.5338638 213.3712326 252.0393471)
    Mesh has 3 geometric (non-empty/wedge) directions 3{1}
    Mesh has 3 solution (non-empty) directions 3{1}
    Boundary openness (-1.964979404e-17 -2.458249359e-17 -9.330755611e-17) OK.
    Max cell openness = 2.041057744e-15 OK.
    Max aspect ratio = 113.5707949 OK.
    Minimum face area = 6.739521891e-05. Maximum face area = 6482.786613.  Face area magnitudes OK.
    Min volume = 0.000197452466. Max volume = 97719.27419.  Total volume = 24497376.03.  Cell volumes OK.
    Mesh non-orthogonality Max: 51.64814982 average: 13.81729067
    Non-orthogonality check OK.
    Face pyramids OK.
    Max skewness = 4.991985491 OK.
    Coupled point location match (average 0) OK.

Mesh OK.

Time = 1

ThrustCoeff Source Term for disk1: 2000
TorqueCoeff Source Term for disk1: 0
Dynamically adjusted scale for disk1: 32463.18159
U Initial residual: (1.115300389e-05 0.001012525928 3.451931269e-05)
U   Final residual: (6.408857099e-07 5.977673745e-05 2.736000269e-06)
he Initial residual: 1.620088497e-05
he   Final residual: 9.0169936e-07
p Initial residual: 0.0004599821926
p   Final residual: 6.147433538e-06
Time step continuity errors : sum local = 5.188411671e-08
                                 global = 6.738915325e-09
                             cumulative = -0.009666264009
nuTilda Initial residual: 1.046061132e-09
          Final residual: 4.006589694e-11
Bounding nuTilda>1e-16
yPlus min: 221.8567175 max: 1346.068389 mean: 524.129316
CD-part1-force: 0.03347381226
CL-part1-force: 0.2440688262
ExecutionTime = 5.63 s  ClockTime = 8 s

Time = 38
Minimal residual 9.20092865e-09 satisfied the prescribed tolerance 1e-08

CD-part1-force: 0.03347367941
CL-part1-force: 0.2440718477
Printing Primal Residual Statistics.
U Residual Norm2: (0.04727036752 0.04379884625 0.02855710058)
U Residual Mean: (0.0002451216933 0.0002325729959 0.0001785996352)
U Residual Max: (0.02253493249 0.0166684499 0.007430839194)
p Residual Norm2: 0.001448051892
p Residual Mean: 7.008763333e-06
p Residual Max: 0.0005672747659
T Residual Norm2: 7.967956101
T Residual Mean: 0.04196785094
T Residual Max: 2.623835349
nuTilda Residual Norm2: 0.0002530805202
nuTilda Residual Mean: 3.430841084e-07
nuTilda Residual Max: 0.0002351026167
phi Residual Norm2: 4.08686155e-05
phi Residual Mean: 1.911028644e-07
phi Residual Max: 1.359540901e-05
End

Computing surface forces
Total force:
Fx = 3.584745e+04
Fy = 2.613801e+05
Fz = -1.831159e+04
NL: NLBGS 5 ; 17.449629 1.43117093e-06
Setting up primal boundary conditions based on pyOptions: 
Setting primal boundary conditions...
Setting U = (200 0 0) at inout
Setting primal boundary conditions...
Setting p = 101325 at inout
Setting primal boundary conditions...
Setting T = 300 at inout
Setting primal boundary conditions...
Setting nuTilda = 4.5e-05 at inout
Setting nut wall BC for wing. BCType=nutLowReWallFunction
Setting nut wall BC for wing_te. BCType=nutLowReWallFunction
Running Primal Solver 006
Previous solution time 38 found and deleted.
No finite volume options present

Starting time loop

Checking mesh quality for time = 0
    Overall domain bounding box (-202.9933461 -212.6869395 0) (234.533864 213.3712314 252.0393471)
    Mesh has 3 geometric (non-empty/wedge) directions 3{1}
    Mesh has 3 solution (non-empty) directions 3{1}
    Boundary openness (1.170546822e-17 3.435675985e-17 -2.700064572e-17) OK.
    Max cell openness = 1.456092274e-15 OK.
    Max aspect ratio = 113.5672212 OK.
    Minimum face area = 6.73952189e-05. Maximum face area = 6482.786613.  Face area magnitudes OK.
    Min volume = 0.0001974524661. Max volume = 97719.27422.  Total volume = 24497376.03.  Cell volumes OK.
    Mesh non-orthogonality Max: 51.64813769 average: 13.8172889
    Non-orthogonality check OK.
    Face pyramids OK.
    Max skewness = 4.991975374 OK.
    Coupled point location match (average 0) OK.

Mesh OK.

Time = 1

ThrustCoeff Source Term for disk1: 2000
TorqueCoeff Source Term for disk1: 0
Dynamically adjusted scale for disk1: 32463.17781
U Initial residual: (1.115056219e-05 0.001012493039 3.451271869e-05)
U   Final residual: (6.408932151e-07 5.977761366e-05 2.736212883e-06)
he Initial residual: 1.61958244e-05
he   Final residual: 9.014551555e-07
p Initial residual: 0.0004597378365
p   Final residual: 6.13483512e-06
Time step continuity errors : sum local = 5.177576265e-08
                                 global = 6.786969812e-09
                             cumulative = -0.009666257222
nuTilda Initial residual: 5.303925686e-10
          Final residual: 2.634122879e-11
Bounding nuTilda>1e-16
yPlus min: 221.856608 max: 1346.067486 mean: 524.129228
CD-part1-force: 0.0334736766
CL-part1-force: 0.2440719425
ExecutionTime = 5.97 s  ClockTime = 9 s

Time = 37
Minimal residual 9.926346682e-09 satisfied the prescribed tolerance 1e-08

CD-part1-force: 0.03347368028
CL-part1-force: 0.2440719188
Printing Primal Residual Statistics.
U Residual Norm2: (0.01922658355 0.02476630166 0.01847098801)
U Residual Mean: (0.0001411314576 0.0001786985653 0.000144762847)
U Residual Max: (0.005629862417 0.005064807367 0.003976573837)
p Residual Norm2: 0.0009275805594
p Residual Mean: 4.737927451e-06
p Residual Max: 0.0002451519429
T Residual Norm2: 6.63988792
T Residual Mean: 0.04027430668
T Residual Max: 1.393677875
nuTilda Residual Norm2: 4.414816338e-05
nuTilda Residual Mean: 7.327586135e-08
nuTilda Residual Max: 4.035687205e-05
phi Residual Norm2: 3.005572757e-05
phi Residual Mean: 1.60845031e-07
phi Residual Max: 4.513695993e-06
End

Computing surface forces
Total force:
Fx = 3.584745e+04
Fy = 2.613802e+05
Fz = -1.831152e+04
NL: NLBGS 6 ; 0.508275994 4.16874095e-08
Setting up primal boundary conditions based on pyOptions: 
Setting primal boundary conditions...
Setting U = (200 0 0) at inout
Setting primal boundary conditions...
Setting p = 101325 at inout
Setting primal boundary conditions...
Setting T = 300 at inout
Setting primal boundary conditions...
Setting nuTilda = 4.5e-05 at inout
Setting nut wall BC for wing. BCType=nutLowReWallFunction
Setting nut wall BC for wing_te. BCType=nutLowReWallFunction
Running Primal Solver 007
Previous solution time 37 found and deleted.
No finite volume options present

Starting time loop

Checking mesh quality for time = 0
    Overall domain bounding box (-202.9933461 -212.6869395 0) (234.533864 213.3712314 252.0393471)
    Mesh has 3 geometric (non-empty/wedge) directions 3{1}
    Mesh has 3 solution (non-empty) directions 3{1}
    Boundary openness (2.008788586e-17 2.396108022e-17 9.368785165e-17) OK.
    Max cell openness = 3.958387692e-15 OK.
    Max aspect ratio = 113.5672085 OK.
    Minimum face area = 6.73952189e-05. Maximum face area = 6482.786613.  Face area magnitudes OK.
    Min volume = 0.0001974524661. Max volume = 97719.27422.  Total volume = 24497376.03.  Cell volumes OK.
    Mesh non-orthogonality Max: 51.64813764 average: 13.81728889
    Non-orthogonality check OK.
    Face pyramids OK.
    Max skewness = 4.991975313 OK.
    Coupled point location match (average 0) OK.

Mesh OK.

Time = 1

ThrustCoeff Source Term for disk1: 2000
TorqueCoeff Source Term for disk1: 0
Dynamically adjusted scale for disk1: 32463.17771
U Initial residual: (1.115068298e-05 0.00101249408 3.451314551e-05)
U   Final residual: (6.409188222e-07 5.977833569e-05 2.736316694e-06)
he Initial residual: 1.619625969e-05
he   Final residual: 9.015751458e-07
p Initial residual: 0.0004597369431
p   Final residual: 6.134595019e-06
Time step continuity errors : sum local = 5.177373525e-08
                                 global = 6.78812447e-09
                             cumulative = -0.009666250434
nuTilda Initial residual: 5.143407989e-10
          Final residual: 2.599400705e-11
Bounding nuTilda>1e-16
yPlus min: 221.8566053 max: 1346.067525 mean: 524.1292311
CD-part1-force: 0.03347367393
CL-part1-force: 0.2440719619
ExecutionTime = 6.31 s  ClockTime = 9 s

Time = 37
Minimal residual 9.880046206e-09 satisfied the prescribed tolerance 1e-08

CD-part1-force: 0.03347368001
CL-part1-force: 0.2440719136
Printing Primal Residual Statistics.
U Residual Norm2: (0.01860739225 0.02501476532 0.01880130061)
U Residual Mean: (0.0001422541571 0.0001802055505 0.0001458828823)
U Residual Max: (0.004106968565 0.004748226755 0.004172894311)
p Residual Norm2: 0.0009141724281
p Residual Mean: 4.632914865e-06
p Residual Max: 0.0002365785682
T Residual Norm2: 6.544022275
T Residual Mean: 0.03907803512
T Residual Max: 1.405275662
nuTilda Residual Norm2: 1.170023571e-05
nuTilda Residual Mean: 3.915557113e-08
nuTilda Residual Max: 7.369283562e-06
phi Residual Norm2: 2.975904683e-05
phi Residual Mean: 1.595331414e-07
phi Residual Max: 4.23321295e-06
End

Computing surface forces
Total force:
Fx = 3.584745e+04
Fy = 2.613802e+05
Fz = -1.831152e+04
NL: NLBGS 7 ; 0.00329299955 2.70082834e-10
NL: NLBGS Converged
Nonlinear constraints
{'cruise.aero_post.functionals.CL': array([0.2440719136209888]),
 'cruise.struct_post.eval_funcs.ks_vmfailure': array([0.4064494602109858]),
 